OPT_V9/Results/My_campus_w_initial_sub_3_active_27_03_13_25/powerflow_results_t1.txt
Pandapower Network Debug Info
==================================================

BUS:
       vm_pu     va_degree      p_mw        q_mvar
0   1.006704  2.968696e-01 -0.004256 -1.065923e-04
1   1.011206  4.969298e-01 -0.004483 -7.366837e-06
2   1.014086  6.242930e-01 -0.003232  0.000000e+00
3   1.008332  3.691629e-01 -0.002460  0.000000e+00
4   1.004837  2.152290e-01 -0.003245 -9.909009e-06
5   1.003917  1.743113e-01 -0.000042  4.050667e-04
6   1.008583  3.474680e-01 -0.005070 -4.380598e-04
7   1.002163  9.662091e-02 -0.003239 -5.502014e-06
8   1.000904  4.055817e-02 -0.002151 -3.973552e-06
9   1.000000  1.108856e-04 -0.001711 -1.006482e-07
10  0.999997 -2.797953e-05 -0.000826 -3.726615e-08
11  0.999993 -2.424143e-04  0.009814  0.000000e+00
12  0.999978 -7.395223e-04  0.001615 -1.223429e-07
13  0.999963 -1.406646e-03  0.010111 -3.898639e-08
14  0.999968 -1.185712e-03  0.009175 -1.585833e-07
15  1.000006  3.622771e-04  0.000000  0.000000e+00
16  1.000006  3.625622e-04  0.000000  0.000000e+00
17  0.999978 -7.145672e-04  0.000000  0.000000e+00
18  0.999979 -7.142809e-04  0.000000  0.000000e+00
19  1.000000  0.000000e+00  0.006991 -4.997478e-03
20  1.000000  4.293580e-07  0.000000  0.000000e+00
21  1.000000  0.000000e+00 -0.007242 -4.999604e-03
22  1.000000  4.296625e-07  0.000000  0.000000e+00
--------------------------------------------------

LINE:
    p_from_mw   q_from_mvar   p_to_mw     q_to_mvar         pl_mw       ql_mvar  i_from_ka   i_to_ka      i_ka  vm_from_pu  va_from_degree  vm_to_pu  va_to_degree  loading_percent
0   -0.007001  9.974903e-04  0.007002 -9.974522e-04  4.892203e-08  3.814531e-08   0.000272  0.000272  0.000272    1.000000    4.293580e-07  1.000006      0.000362         0.118351
1    0.007232  9.996163e-04 -0.007232 -9.995045e-04  1.433672e-07  1.117858e-07   0.000281  0.000281  0.000281    1.000000    4.296625e-07  0.999978     -0.000715         0.122174
2    0.007277 -4.747010e-08 -0.007277  7.939831e-08  4.094849e-08  3.192821e-08   0.000280  0.000280  0.000280    1.000006    3.622771e-04  1.000000      0.000111         0.121778
3    0.001615 -1.216393e-07 -0.001615  1.223427e-07  9.020748e-10  7.033626e-10   0.000062  0.000062  0.000062    0.999978   -7.145672e-04  0.999978     -0.000740         0.027028
4    0.019286  9.500678e-12 -0.019286  1.585807e-07  2.033947e-07  1.585902e-07   0.000742  0.000742  0.000742    0.999978   -7.145672e-04  0.999968     -0.001186         0.322759
5   -0.014289 -2.462783e-06  0.014384  7.691765e-05  9.548967e-05  7.445487e-05   0.020624  0.020624  0.020624    1.000006    3.625622e-04  1.006704      0.296870         8.966780
6   -0.005070 -1.673085e-07  0.005090  1.571594e-05  1.994140e-05  1.554863e-05   0.007318  0.007318  0.007318    0.999979   -7.142809e-04  1.003917      0.174311         3.181629
7   -0.003232  2.180800e-10  0.003239  5.502031e-06  7.056730e-06  5.502249e-06   0.004665  0.004665  0.004665    0.999979   -7.142809e-04  1.002163      0.096621         2.028179
8   -0.005378 -1.137499e-07  0.005383  3.991466e-06  4.973238e-06  3.877716e-06   0.007763  0.007763  0.007763    0.999979   -7.142809e-04  1.000904      0.040558         3.375094
9   -0.008988  5.348947e-10  0.008988  2.124980e-08  2.793925e-08  2.178469e-08   0.000346  0.000346  0.000346    0.999997   -2.797953e-05  1.000000      0.000111         0.150418
10  -0.009814  1.685130e-13  0.009814  3.673127e-08  4.710872e-08  3.673144e-08   0.000378  0.000378  0.000378    0.999993   -2.424143e-04  0.999997     -0.000028         0.164243
11   0.010111  2.069578e-12 -0.010111  3.898682e-08  5.000394e-08  3.898889e-08   0.000389  0.000389  0.000389    0.999968   -1.185712e-03  0.999963     -0.001407         0.169215
12   0.007706  2.100357e-07 -0.007671  2.657700e-05  3.435484e-05  2.678703e-05   0.010999  0.010999  0.010999    1.011206    4.969298e-01  1.006704      0.296870         4.782140
13   0.002460  8.457872e-10 -0.002456  3.098329e-06  3.974745e-06  3.099174e-06   0.003522  0.003522  0.003522    1.008332    3.691629e-01  1.006704      0.296870         1.531160
14   0.003232  3.874591e-09 -0.003223  7.159743e-06  9.187465e-06  7.163618e-06   0.004600  0.004600  0.004600    1.014086    6.242930e-01  1.011206      0.496930         1.999966
15  -0.003232 -1.791338e-08  0.003245  9.909180e-06  1.268572e-05  9.891267e-06   0.004661  0.004661  0.004661    1.000904    4.055817e-02  1.004837      0.215229         2.026319
16   0.005070  4.380619e-04 -0.005047 -4.207831e-04  2.216042e-05  1.727884e-05   0.007282  0.007282  0.007282    1.008583    3.474680e-01  1.003917      0.174311         3.166108
--------------------------------------------------

TRAFO:
    p_hv_mw  q_hv_mvar   p_lv_mw     q_lv_mvar    pl_mw  ql_mvar   i_hv_ka   i_lv_ka  vm_hv_pu  va_hv_degree  vm_lv_pu  va_lv_degree  loading_percent
0 -0.014279   0.000997  0.014289  2.462709e-06  0.00001    0.001  0.000551  0.020624  1.000006      0.000362  1.000006  3.625622e-04         0.143132
1 -0.013670   0.001000  0.013680  2.808394e-07  0.00001    0.001  0.000528  0.019745  0.999978     -0.000715  0.999979 -7.142809e-04         0.137064
2 -0.006991   0.004997  0.007001 -9.974903e-04  0.00001    0.004  0.000071  0.000272  1.000000      0.000000  1.000000  4.293580e-07         0.021485
3  0.007242   0.005000 -0.007232 -9.996163e-04  0.00001    0.004  0.000073  0.000281  1.000000      0.000000  1.000000  4.296625e-07         0.022000
--------------------------------------------------
